gem5 Simulator System.  https://www.gem5.org
gem5 is copyrighted software; use the --copyright option for details.

gem5 version 23.0.1.0
gem5 compiled Oct 30 2023 14:04:57
gem5 started Oct 30 2023 14:07:01
gem5 executing on rashid-laptop, pid 45339
command line: ../../build/X86/gem5.opt --outdir=/home/rashid/warm_result/gapbs/bfs_5_raw_flags -debug-flags=ExecAll --debug-file=/home/rashid/warm_result/gapbs/bfs_5_raw_flags/trace.out --redirect-stdout --redirect-stderr ../../configs/deprecated/example/fs.py --checkpoint-dir=/home/rashid/new_benchmarks/without_checkpoint/bfs -r 5 --kernel=/home/rashid/vmlinux/vmlinux-5.4.49 --disk-image=/home/rashid/fs_img/parsec_1.img --cpu-type=DerivO3CPU --restore-with-cpu=DerivO3CPU --mem-size=16GB --ruby --caches --l1d_size=64kB --l1i_size=64kB --l1d_assoc=8 --l1i_assoc=8 --num-l2caches=1 --num-dirs=1 --topology=Mesh_XY --mesh-rows=1 --l2_size=2MB --l2_assoc=16 --cpu-clock=2GHz --cacheline_size=64 -I 250000000
